Circuit: * C:\Users\usuario\Documents\Universidad\RF\AMModulator\Antenna\AcopleAntena.asc


Date: Tue Jun 28 15:52:03 2022
Total elapsed time: 1.665 seconds.

tnom = 27
temp = 27
method = trap
totiter = 0
traniter = 0
tranpoints = 0
accept = 0
rejected = 0
matrix size = 3
fillins = 0
solver = Normal

