Circuit: * C:\Users\usuario\Documents\Universidad\RF\AMModulator\Antenna\Sims\AcopleAntena.asc


Date: Thu Jun 30 14:25:22 2022
Total elapsed time: 0.436 seconds.

tnom = 27
temp = 27
method = trap
totiter = 0
traniter = 0
tranpoints = 0
accept = 0
rejected = 0
matrix size = 3
fillins = 0
solver = Normal

